850
zn4 s4
Zn    0.000000    0.000000    0.000000
Zn    0.000000    0.000000    5.450270
Zn    0.000000   38.151894    0.000000
Zn    0.000000   38.151894    5.450270
Zn   38.151894    0.000000    0.000000
Zn   38.151894    0.000000    5.450270
Zn   38.151894   38.151894    0.000000
Zn   38.151894   38.151894    5.450270
Zn    0.000000    2.725135    2.725135
Zn   38.151894    2.725135    2.725135
Zn    2.725135    0.000000    2.725135
Zn    2.725135   38.151894    2.725135
Zn    2.725135    2.725135    0.000000
Zn    2.725135    2.725135    5.450270
Zn    0.000000    5.450271    0.000000
Zn    0.000000    5.450271    5.450270
Zn   38.151894    5.450271    0.000000
Zn   38.151894    5.450271    5.450270
Zn    0.000000   32.701622    0.000000
Zn    0.000000   32.701622    5.450270
Zn   38.151894   32.701622    0.000000
Zn   38.151894   32.701622    5.450270
Zn    5.450271    0.000000    0.000000
Zn    5.450271    0.000000    5.450270
Zn    5.450271   38.151894    0.000000
Zn    5.450271   38.151894    5.450270
Zn   32.701622    0.000000    0.000000
Zn   32.701622    0.000000    5.450270
Zn   32.701622   38.151894    0.000000
Zn   32.701622   38.151894    5.450270
Zn    0.000000    8.175406    2.725135
Zn   38.151894    8.175406    2.725135
Zn    0.000000   35.426758    2.725135
Zn   38.151894   35.426758    2.725135
Zn    5.450271    2.725135    2.725135
Zn   32.701622    2.725135    2.725135
Zn    2.725135    5.450271    2.725135
Zn    2.725135   32.701622    2.725135
Zn    8.175406    0.000000    2.725135
Zn    8.175406   38.151894    2.725135
Zn   35.426758    0.000000    2.725135
Zn   35.426758   38.151894    2.725135
Zn    2.725135    8.175406    0.000000
Zn    2.725135    8.175406    5.450270
Zn    2.725135   35.426758    0.000000
Zn    2.725135   35.426758    5.450270
Zn    8.175406    2.725135    0.000000
Zn    8.175406    2.725135    5.450270
Zn   35.426758    2.725135    0.000000
Zn   35.426758    2.725135    5.450270
Zn    0.000000   10.900541    0.000000
Zn    0.000000   10.900541    5.450270
Zn   38.151894   10.900541    0.000000
Zn   38.151894   10.900541    5.450270
Zn    0.000000   27.251352    0.000000
Zn    0.000000   27.251352    5.450270
Zn   38.151894   27.251352    0.000000
Zn   38.151894   27.251352    5.450270
Zn   10.900541    0.000000    0.000000
Zn   10.900541    0.000000    5.450270
Zn   10.900541   38.151894    0.000000
Zn   10.900541   38.151894    5.450270
Zn   27.251352    0.000000    0.000000
Zn   27.251352    0.000000    5.450270
Zn   27.251352   38.151894    0.000000
Zn   27.251352   38.151894    5.450270
Zn    0.000000   13.625676    2.725135
Zn   38.151894   13.625676    2.725135
Zn    0.000000   29.976488    2.725135
Zn   38.151894   29.976488    2.725135
Zn   10.900541    2.725135    2.725135
Zn   27.251352    2.725135    2.725135
Zn    2.725135   10.900541    2.725135
Zn    2.725135   27.251352    2.725135
Zn   13.625676    0.000000    2.725135
Zn   13.625676   38.151894    2.725135
Zn   29.976488    0.000000    2.725135
Zn   29.976488   38.151894    2.725135
Zn    2.725135   13.625676    0.000000
Zn    2.725135   13.625676    5.450270
Zn    2.725135   29.976488    0.000000
Zn    2.725135   29.976488    5.450270
Zn   13.625676    2.725135    0.000000
Zn   13.625676    2.725135    5.450270
Zn   29.976488    2.725135    0.000000
Zn   29.976488    2.725135    5.450270
Zn    0.000000   16.350811    0.000000
Zn    0.000000   16.350811    5.450270
Zn   38.151894   16.350811    0.000000
Zn   38.151894   16.350811    5.450270
Zn    0.000000   21.801083    0.000000
Zn    0.000000   21.801083    5.450270
Zn   38.151894   21.801083    0.000000
Zn   38.151894   21.801083    5.450270
Zn   16.350811    0.000000    0.000000
Zn   16.350811    0.000000    5.450270
Zn   16.350811   38.151894    0.000000
Zn   16.350811   38.151894    5.450270
Zn   21.801083    0.000000    0.000000
Zn   21.801083    0.000000    5.450270
Zn   21.801083   38.151894    0.000000
Zn   21.801083   38.151894    5.450270
Zn    0.000000   19.075947    2.725135
Zn   38.151894   19.075947    2.725135
Zn    0.000000   24.526217    2.725135
Zn   38.151894   24.526217    2.725135
Zn   16.350811    2.725135    2.725135
Zn   21.801083    2.725135    2.725135
Zn    2.725135   16.350811    2.725135
Zn    2.725135   21.801083    2.725135
Zn   19.075947    0.000000    2.725135
Zn   19.075947   38.151894    2.725135
Zn   24.526217    0.000000    2.725135
Zn   24.526217   38.151894    2.725135
Zn    2.725135   19.075947    0.000000
Zn    2.725135   19.075947    5.450270
Zn    2.725135   24.526217    0.000000
Zn    2.725135   24.526217    5.450270
Zn   19.075947    2.725135    0.000000
Zn   19.075947    2.725135    5.450270
Zn   24.526217    2.725135    0.000000
Zn   24.526217    2.725135    5.450270
Zn    5.450271    5.450271    0.000000
Zn    5.450271    5.450271    5.450270
Zn   32.701622   32.701622    0.000000
Zn   32.701622   32.701622    5.450270
Zn   32.701622    5.450271    0.000000
Zn   32.701622    5.450271    5.450270
Zn    5.450271   32.701622    0.000000
Zn    5.450271   32.701622    5.450270
Zn    5.450271    8.175406    2.725135
Zn   32.701622   35.426758    2.725135
Zn   32.701622    8.175406    2.725135
Zn    5.450271   35.426758    2.725135
Zn    8.175406    5.450271    2.725135
Zn   35.426758   32.701622    2.725135
Zn   35.426758    5.450271    2.725135
Zn    8.175406   32.701622    2.725135
Zn    8.175406    8.175406    0.000000
Zn    8.175406    8.175406    5.450270
Zn   35.426758   35.426758    0.000000
Zn   35.426758   35.426758    5.450270
Zn   35.426758    8.175406    0.000000
Zn   35.426758    8.175406    5.450270
Zn    8.175406   35.426758    0.000000
Zn    8.175406   35.426758    5.450270
Zn    5.450271   10.900541    0.000000
Zn    5.450271   10.900541    5.450270
Zn   32.701622   27.251352    0.000000
Zn   32.701622   27.251352    5.450270
Zn   32.701622   10.900541    0.000000
Zn   32.701622   10.900541    5.450270
Zn    5.450271   27.251352    0.000000
Zn    5.450271   27.251352    5.450270
Zn   10.900541    5.450271    0.000000
Zn   10.900541    5.450271    5.450270
Zn   27.251352   32.701622    0.000000
Zn   27.251352   32.701622    5.450270
Zn   10.900541   32.701622    0.000000
Zn   10.900541   32.701622    5.450270
Zn   27.251352    5.450271    0.000000
Zn   27.251352    5.450271    5.450270
Zn    5.450271   13.625676    2.725135
Zn   32.701622   29.976488    2.725135
Zn   32.701622   13.625676    2.725135
Zn    5.450271   29.976488    2.725135
Zn   10.900541    8.175406    2.725135
Zn   27.251352   35.426758    2.725135
Zn   10.900541   35.426758    2.725135
Zn   27.251352    8.175406    2.725135
Zn    8.175406   10.900541    2.725135
Zn   35.426758   27.251352    2.725135
Zn   35.426758   10.900541    2.725135
Zn    8.175406   27.251352    2.725135
Zn   13.625676    5.450271    2.725135
Zn   29.976488   32.701622    2.725135
Zn   13.625676   32.701622    2.725135
Zn   29.976488    5.450271    2.725135
Zn    8.175406   13.625676    0.000000
Zn    8.175406   13.625676    5.450270
Zn   35.426758   29.976488    0.000000
Zn   35.426758   29.976488    5.450270
Zn   35.426758   13.625676    0.000000
Zn   35.426758   13.625676    5.450270
Zn    8.175406   29.976488    0.000000
Zn    8.175406   29.976488    5.450270
Zn   13.625676    8.175406    0.000000
Zn   13.625676    8.175406    5.450270
Zn   29.976488   35.426758    0.000000
Zn   29.976488   35.426758    5.450270
Zn   13.625676   35.426758    0.000000
Zn   13.625676   35.426758    5.450270
Zn   29.976488    8.175406    0.000000
Zn   29.976488    8.175406    5.450270
Zn    5.450271   16.350811    0.000000
Zn    5.450271   16.350811    5.450270
Zn   32.701622   21.801083    0.000000
Zn   32.701622   21.801083    5.450270
Zn   32.701622   16.350811    0.000000
Zn   32.701622   16.350811    5.450270
Zn    5.450271   21.801083    0.000000
Zn    5.450271   21.801083    5.450270
Zn   16.350811    5.450271    0.000000
Zn   16.350811    5.450271    5.450270
Zn   21.801083   32.701622    0.000000
Zn   21.801083   32.701622    5.450270
Zn   16.350811   32.701622    0.000000
Zn   16.350811   32.701622    5.450270
Zn   21.801083    5.450271    0.000000
Zn   21.801083    5.450271    5.450270
Zn    5.450271   19.075947    2.725135
Zn   32.701622   24.526217    2.725135
Zn   32.701622   19.075947    2.725135
Zn    5.450271   24.526217    2.725135
Zn   16.350811    8.175406    2.725135
Zn   21.801083   35.426758    2.725135
Zn   16.350811   35.426758    2.725135
Zn   21.801083    8.175406    2.725135
Zn    8.175406   16.350811    2.725135
Zn   35.426758   21.801083    2.725135
Zn   35.426758   16.350811    2.725135
Zn    8.175406   21.801083    2.725135
Zn   19.075947    5.450271    2.725135
Zn   24.526217   32.701622    2.725135
Zn   19.075947   32.701622    2.725135
Zn   24.526217    5.450271    2.725135
Zn    8.175406   19.075947    0.000000
Zn    8.175406   19.075947    5.450270
Zn   35.426758   24.526217    0.000000
Zn   35.426758   24.526217    5.450270
Zn   35.426758   19.075947    0.000000
Zn   35.426758   19.075947    5.450270
Zn    8.175406   24.526217    0.000000
Zn    8.175406   24.526217    5.450270
Zn   19.075947    8.175406    0.000000
Zn   19.075947    8.175406    5.450270
Zn   24.526217   35.426758    0.000000
Zn   24.526217   35.426758    5.450270
Zn   19.075947   35.426758    0.000000
Zn   19.075947   35.426758    5.450270
Zn   24.526217    8.175406    0.000000
Zn   24.526217    8.175406    5.450270
Zn   10.900541   10.900541    0.000000
Zn   10.900541   10.900541    5.450270
Zn   27.251352   27.251352    0.000000
Zn   27.251352   27.251352    5.450270
Zn   27.251352   10.900541    0.000000
Zn   27.251352   10.900541    5.450270
Zn   10.900541   27.251352    0.000000
Zn   10.900541   27.251352    5.450270
Zn   10.900541   13.625676    2.725135
Zn   27.251352   29.976488    2.725135
Zn   27.251352   13.625676    2.725135
Zn   10.900541   29.976488    2.725135
Zn   13.625676   10.900541    2.725135
Zn   29.976488   27.251352    2.725135
Zn   29.976488   10.900541    2.725135
Zn   13.625676   27.251352    2.725135
Zn   13.625676   13.625676    0.000000
Zn   13.625676   13.625676    5.450270
Zn   29.976488   29.976488    0.000000
Zn   29.976488   29.976488    5.450270
Zn   29.976488   13.625676    0.000000
Zn   29.976488   13.625676    5.450270
Zn   13.625676   29.976488    0.000000
Zn   13.625676   29.976488    5.450270
Zn   10.900541   16.350811    0.000000
Zn   10.900541   16.350811    5.450270
Zn   27.251352   21.801083    0.000000
Zn   27.251352   21.801083    5.450270
Zn   27.251352   16.350811    0.000000
Zn   27.251352   16.350811    5.450270
Zn   10.900541   21.801083    0.000000
Zn   10.900541   21.801083    5.450270
Zn   16.350811   10.900541    0.000000
Zn   16.350811   10.900541    5.450270
Zn   21.801083   27.251352    0.000000
Zn   21.801083   27.251352    5.450270
Zn   16.350811   27.251352    0.000000
Zn   16.350811   27.251352    5.450270
Zn   21.801083   10.900541    0.000000
Zn   21.801083   10.900541    5.450270
Zn   10.900541   19.075947    2.725135
Zn   27.251352   24.526217    2.725135
Zn   27.251352   19.075947    2.725135
Zn   10.900541   24.526217    2.725135
Zn   16.350811   13.625676    2.725135
Zn   21.801083   29.976488    2.725135
Zn   16.350811   29.976488    2.725135
Zn   21.801083   13.625676    2.725135
Zn   13.625676   16.350811    2.725135
Zn   29.976488   21.801083    2.725135
Zn   29.976488   16.350811    2.725135
Zn   13.625676   21.801083    2.725135
Zn   19.075947   10.900541    2.725135
Zn   24.526217   27.251352    2.725135
Zn   19.075947   27.251352    2.725135
Zn   24.526217   10.900541    2.725135
Zn   13.625676   19.075947    0.000000
Zn   13.625676   19.075947    5.450270
Zn   29.976488   24.526217    0.000000
Zn   29.976488   24.526217    5.450270
Zn   29.976488   19.075947    0.000000
Zn   29.976488   19.075947    5.450270
Zn   13.625676   24.526217    0.000000
Zn   13.625676   24.526217    5.450270
Zn   19.075947   13.625676    0.000000
Zn   19.075947   13.625676    5.450270
Zn   24.526217   29.976488    0.000000
Zn   24.526217   29.976488    5.450270
Zn   19.075947   29.976488    0.000000
Zn   19.075947   29.976488    5.450270
Zn   24.526217   13.625676    0.000000
Zn   24.526217   13.625676    5.450270
Zn   16.350811   16.350811    0.000000
Zn   16.350811   16.350811    5.450270
Zn   21.801083   21.801083    0.000000
Zn   21.801083   21.801083    5.450270
Zn   21.801083   16.350811    0.000000
Zn   21.801083   16.350811    5.450270
Zn   16.350811   21.801083    0.000000
Zn   16.350811   21.801083    5.450270
Zn   16.350811   19.075947    2.725135
Zn   21.801083   24.526217    2.725135
Zn   21.801083   19.075947    2.725135
Zn   16.350811   24.526217    2.725135
Zn   19.075947   16.350811    2.725135
Zn   24.526217   21.801083    2.725135
Zn   24.526217   16.350811    2.725135
Zn   19.075947   21.801083    2.725135
Zn   19.075947   19.075947    0.000000
Zn   19.075947   19.075947    5.450270
Zn   24.526217   24.526217    0.000000
Zn   24.526217   24.526217    5.450270
Zn   24.526217   19.075947    0.000000
Zn   24.526217   19.075947    5.450270
Zn   19.075947   24.526217    0.000000
Zn   19.075947   24.526217    5.450270
 S    1.362568    1.362568    4.087703
 S   36.789326   36.789326    4.087703
 S   36.789326    1.362568    1.362568
 S    1.362568   36.789326    1.362568
 S    4.087703    1.362568    1.362568
 S    4.087703   36.789326    4.087703
 S   34.064190   36.789326    1.362568
 S   34.064190    1.362568    4.087703
 S    1.362568    4.087703    1.362568
 S   36.789326    4.087703    4.087703
 S    1.362568   34.064190    4.087703
 S   36.789326   34.064190    1.362568
 S    4.087703    4.087703    4.087703
 S   34.064190    4.087703    1.362568
 S    1.362568    6.812838    4.087703
 S   36.789326    6.812838    1.362568
 S    6.812838    1.362568    4.087703
 S    6.812838   36.789326    1.362568
 S    4.087703   34.064190    1.362568
 S    6.812838    4.087703    1.362568
 S    4.087703    6.812838    1.362568
 S   36.789326   31.339056    4.087703
 S    1.362568   31.339056    1.362568
 S   31.339056    4.087703    4.087703
 S    6.812838   34.064190    4.087703
 S   31.339056   34.064190    1.362568
 S   31.339056   36.789326    4.087703
 S   31.339056    1.362568    1.362568
 S    4.087703   31.339056    4.087703
 S   34.064190    6.812838    4.087703
 S   34.064190   31.339056    1.362568
 S    1.362568    9.537973    1.362568
 S   36.789326    9.537973    4.087703
 S    6.812838    6.812838    4.087703
 S   31.339056    6.812838    1.362568
 S    4.087703    9.537973    4.087703
 S   34.064190    9.537973    1.362568
 S   34.064190   34.064190    4.087703
 S    9.537973    4.087703    4.087703
 S    9.537973   34.064190    1.362568
 S    9.537973    1.362568    1.362568
 S    9.537973   36.789326    4.087703
 S    6.812838   31.339056    1.362568
 S    9.537973    6.812838    1.362568
 S    6.812838    9.537973    1.362568
 S    1.362568   12.263109    4.087703
 S   36.789326   25.888786    4.087703
 S   36.789326   12.263109    1.362568
 S    1.362568   25.888786    1.362568
 S   12.263109    4.087703    1.362568
 S   25.888786    4.087703    4.087703
 S   12.263109   34.064190    4.087703
 S   25.888786   34.064190    1.362568
 S   12.263109    1.362568    4.087703
 S   25.888786   36.789326    4.087703
 S   12.263109   36.789326    1.362568
 S   25.888786    1.362568    1.362568
 S    4.087703   12.263109    1.362568
 S    4.087703   25.888786    4.087703
 S   34.064190   12.263109    4.087703
 S   34.064190   25.888786    1.362568
 S    1.362568   14.988245    1.362568
 S   36.789326   28.613920    1.362568
 S   36.789326   14.988245    4.087703
 S    1.362568   28.613920    4.087703
 S   12.263109    6.812838    4.087703
 S   25.888786    6.812838    1.362568
 S    4.087703   14.988245    4.087703
 S    4.087703   28.613920    1.362568
 S   34.064190   14.988245    1.362568
 S   34.064190   28.613920    4.087703
 S   14.988245    4.087703    4.087703
 S   28.613920    4.087703    1.362568
 S   14.988245   34.064190    1.362568
 S   28.613920   34.064190    4.087703
 S   14.988245    1.362568    1.362568
 S   28.613920   36.789326    1.362568
 S   14.988245   36.789326    4.087703
 S   28.613920    1.362568    4.087703
 S    6.812838   12.263109    4.087703
 S    6.812838   25.888786    1.362568
 S   14.988245    6.812838    1.362568
 S   28.613920    6.812838    4.087703
 S    6.812838   14.988245    1.362568
 S    6.812838   28.613920    4.087703
 S    1.362568   17.713379    4.087703
 S   36.789326   20.438517    4.087703
 S   36.789326   17.713379    1.362568
 S    1.362568   20.438517    1.362568
 S   17.713379    4.087703    1.362568
 S   20.438517    4.087703    4.087703
 S   17.713379   34.064190    4.087703
 S   20.438517   34.064190    1.362568
 S   17.713379    1.362568    4.087703
 S   20.438517   36.789326    4.087703
 S   17.713379   36.789326    1.362568
 S   20.438517    1.362568    1.362568
 S    4.087703   17.713379    1.362568
 S    4.087703   20.438517    4.087703
 S   34.064190   17.713379    4.087703
 S   34.064190   20.438517    1.362568
 S   36.789326   23.163651    1.362568
 S    1.362568   23.163651    4.087703
 S   17.713379    6.812838    4.087703
 S   20.438517    6.812838    1.362568
 S    4.087703   23.163651    1.362568
 S   34.064190   23.163651    4.087703
 S   23.163651    4.087703    1.362568
 S   23.163651   34.064190    4.087703
 S   23.163651   36.789326    1.362568
 S   23.163651    1.362568    4.087703
 S    6.812838   17.713379    4.087703
 S    6.812838   20.438517    1.362568
 S   23.163651    6.812838    4.087703
 S    6.812838   23.163651    4.087703
 S   31.339056   31.339056    4.087703
 S   31.339056    9.537973    4.087703
 S    9.537973   31.339056    4.087703
 S    9.537973    9.537973    4.087703
 S   31.339056   25.888786    4.087703
 S   31.339056   12.263109    1.362568
 S   25.888786   31.339056    4.087703
 S   12.263109   31.339056    1.362568
 S   31.339056   28.613920    1.362568
 S   31.339056   14.988245    4.087703
 S   12.263109    9.537973    1.362568
 S   25.888786    9.537973    4.087703
 S    9.537973   12.263109    1.362568
 S    9.537973   25.888786    4.087703
 S   28.613920   31.339056    1.362568
 S   14.988245   31.339056    4.087703
 S    9.537973   14.988245    4.087703
 S    9.537973   28.613920    1.362568
 S   14.988245    9.537973    4.087703
 S   28.613920    9.537973    1.362568
 S   31.339056   20.438517    4.087703
 S   31.339056   17.713379    1.362568
 S   20.438517   31.339056    4.087703
 S   17.713379   31.339056    1.362568
 S   31.339056   23.163651    1.362568
 S   17.713379    9.537973    1.362568
 S   20.438517    9.537973    4.087703
 S    9.537973   17.713379    1.362568
 S    9.537973   20.438517    4.087703
 S   23.163651   31.339056    1.362568
 S    9.537973   23.163651    1.362568
 S   23.163651    9.537973    1.362568
 S   12.263109   12.263109    4.087703
 S   25.888786   25.888786    4.087703
 S   25.888786   12.263109    1.362568
 S   12.263109   25.888786    1.362568
 S   12.263109   14.988245    1.362568
 S   25.888786   28.613920    1.362568
 S   25.888786   14.988245    4.087703
 S   12.263109   28.613920    4.087703
 S   14.988245   12.263109    1.362568
 S   28.613920   25.888786    1.362568
 S   28.613920   12.263109    4.087703
 S   14.988245   25.888786    4.087703
 S   14.988245   14.988245    4.087703
 S   28.613920   28.613920    4.087703
 S   28.613920   14.988245    1.362568
 S   14.988245   28.613920    1.362568
 S   12.263109   17.713379    4.087703
 S   25.888786   20.438517    4.087703
 S   25.888786   17.713379    1.362568
 S   12.263109   20.438517    1.362568
 S   17.713379   12.263109    4.087703
 S   20.438517   25.888786    4.087703
 S   17.713379   25.888786    1.362568
 S   20.438517   12.263109    1.362568
 S   25.888786   23.163651    1.362568
 S   12.263109   23.163651    4.087703
 S   17.713379   14.988245    1.362568
 S   20.438517   28.613920    1.362568
 S   17.713379   28.613920    4.087703
 S   20.438517   14.988245    4.087703
 S   14.988245   17.713379    1.362568
 S   28.613920   20.438517    1.362568
 S   28.613920   17.713379    4.087703
 S   14.988245   20.438517    4.087703
 S   23.163651   25.888786    1.362568
 S   23.163651   12.263109    4.087703
 S   28.613920   23.163651    4.087703
 S   14.988245   23.163651    1.362568
 S   23.163651   28.613920    4.087703
 S   23.163651   14.988245    1.362568
 S   17.713379   17.713379    4.087703
 S   20.438517   20.438517    4.087703
 S   20.438517   17.713379    1.362568
 S   17.713379   20.438517    1.362568
 S   20.438517   23.163651    1.362568
 S   17.713379   23.163651    4.087703
 S   23.163651   20.438517    1.362568
 S   23.163651   17.713379    4.087703
 S   23.163651   23.163651    4.087703
 S   -1.362568   -1.362568   -1.362567
 S   -1.362568    1.362568    1.362568
 S    1.362568   -1.362568    1.362568
 S    1.362568    1.362568   -1.362567
 S   -1.362568   -1.362568    4.087703
 S   -1.362568    1.362568    6.812838
 S    1.362568   -1.362568    6.812838
 S   -1.362568   36.789326   -1.362567
 S   -1.362568   39.514462    1.362568
 S    1.362568   39.514462   -1.362567
 S   -1.362568   36.789326    4.087703
 S   -1.362568   39.514462    6.812838
 S    1.362568   36.789326    6.812838
 S    1.362568   39.514462    4.087703
 S   36.789326   -1.362568   -1.362567
 S   39.514462   -1.362568    1.362568
 S   39.514462    1.362568   -1.362567
 S   36.789326   -1.362568    4.087703
 S   36.789326    1.362568    6.812838
 S   39.514462   -1.362568    6.812838
 S   39.514462    1.362568    4.087703
 S   36.789326   36.789326   -1.362567
 S   36.789326   39.514462    1.362568
 S   39.514462   36.789326    1.362568
 S   39.514462   39.514462   -1.362567
 S   36.789326   39.514462    6.812838
 S   39.514462   36.789326    6.812838
 S   39.514462   39.514462    4.087703
 S   -1.362568    4.087703    4.087703
 S   39.514462    4.087703    1.362568
 S    4.087703   -1.362568    4.087703
 S    4.087703   39.514462    1.362568
 S    4.087703    4.087703   -1.362567
 S    1.362568    4.087703    6.812838
 S    4.087703    1.362568    6.812838
 S   -1.362568    4.087703   -1.362567
 S   -1.362568    6.812838    1.362568
 S    1.362568    6.812838   -1.362567
 S   -1.362568    6.812838    6.812838
 S   36.789326    4.087703   -1.362567
 S   39.514462    6.812838   -1.362567
 S   36.789326    6.812838    6.812838
 S   39.514462    4.087703    6.812838
 S   39.514462    6.812838    4.087703
 S   -1.362568   31.339056   -1.362567
 S   -1.362568   34.064190    1.362568
 S    1.362568   34.064190   -1.362567
 S   -1.362568   31.339056    4.087703
 S   -1.362568   34.064190    6.812838
 S    1.362568   31.339056    6.812838
 S   36.789326   31.339056   -1.362567
 S   39.514462   31.339056    1.362568
 S   39.514462   34.064190   -1.362567
 S   36.789326   34.064190    6.812838
 S   39.514462   31.339056    6.812838
 S   39.514462   34.064190    4.087703
 S    4.087703   -1.362568   -1.362567
 S    6.812838   -1.362568    1.362568
 S    6.812838    1.362568   -1.362567
 S    6.812838   -1.362568    6.812838
 S    4.087703   36.789326   -1.362567
 S    6.812838   39.514462   -1.362567
 S    4.087703   39.514462    6.812838
 S    6.812838   36.789326    6.812838
 S    6.812838   39.514462    4.087703
 S   31.339056   -1.362568   -1.362567
 S   34.064190   -1.362568    1.362568
 S   34.064190    1.362568   -1.362567
 S   31.339056   -1.362568    4.087703
 S   31.339056    1.362568    6.812838
 S   34.064190   -1.362568    6.812838
 S   31.339056   36.789326   -1.362567
 S   31.339056   39.514462    1.362568
 S   34.064190   39.514462   -1.362567
 S   31.339056   39.514462    6.812838
 S   34.064190   36.789326    6.812838
 S   34.064190   39.514462    4.087703
 S   -1.362568    9.537973    4.087703
 S   39.514462    9.537973    1.362568
 S    9.537973   -1.362568    4.087703
 S    9.537973   39.514462    1.362568
 S    4.087703    9.537973   -1.362567
 S    1.362568    9.537973    6.812838
 S    4.087703    6.812838    6.812838
 S    4.087703   34.064190    6.812838
 S    9.537973    4.087703   -1.362567
 S    6.812838    4.087703    6.812838
 S    9.537973    1.362568    6.812838
 S   34.064190    4.087703    6.812838
 S   -1.362568    9.537973   -1.362567
 S   -1.362568   12.263109    1.362568
 S    1.362568   12.263109   -1.362567
 S   -1.362568   12.263109    6.812838
 S   36.789326    9.537973   -1.362567
 S   39.514462   12.263109   -1.362567
 S   36.789326   12.263109    6.812838
 S   39.514462    9.537973    6.812838
 S   39.514462   12.263109    4.087703
 S   -1.362568   25.888786   -1.362567
 S   -1.362568   28.613920    1.362568
 S    1.362568   28.613920   -1.362567
 S   -1.362568   25.888786    4.087703
 S   -1.362568   28.613920    6.812838
 S    1.362568   25.888786    6.812838
 S   36.789326   25.888786   -1.362567
 S   39.514462   25.888786    1.362568
 S   39.514462   28.613920   -1.362567
 S   36.789326   28.613920    6.812838
 S   39.514462   25.888786    6.812838
 S   39.514462   28.613920    4.087703
 S    9.537973   -1.362568   -1.362567
 S   12.263109   -1.362568    1.362568
 S   12.263109    1.362568   -1.362567
 S   12.263109   -1.362568    6.812838
 S    9.537973   36.789326   -1.362567
 S   12.263109   39.514462   -1.362567
 S    9.537973   39.514462    6.812838
 S   12.263109   36.789326    6.812838
 S   12.263109   39.514462    4.087703
 S   25.888786   -1.362568   -1.362567
 S   28.613920   -1.362568    1.362568
 S   28.613920    1.362568   -1.362567
 S   25.888786   -1.362568    4.087703
 S   25.888786    1.362568    6.812838
 S   28.613920   -1.362568    6.812838
 S   25.888786   36.789326   -1.362567
 S   25.888786   39.514462    1.362568
 S   28.613920   39.514462   -1.362567
 S   25.888786   39.514462    6.812838
 S   28.613920   36.789326    6.812838
 S   28.613920   39.514462    4.087703
 S   -1.362568   14.988245    4.087703
 S   39.514462   14.988245    1.362568
 S   14.988245   -1.362568    4.087703
 S   14.988245   39.514462    1.362568
 S    4.087703   14.988245   -1.362567
 S    1.362568   14.988245    6.812838
 S    4.087703   12.263109    6.812838
 S    4.087703   31.339056   -1.362567
 S    4.087703   28.613920    6.812838
 S   14.988245    4.087703   -1.362567
 S   12.263109    4.087703    6.812838
 S   14.988245    1.362568    6.812838
 S   31.339056    4.087703   -1.362567
 S   28.613920    4.087703    6.812838
 S   -1.362568   14.988245   -1.362567
 S   -1.362568   17.713379    1.362568
 S    1.362568   17.713379   -1.362567
 S   -1.362568   17.713379    6.812838
 S   36.789326   14.988245   -1.362567
 S   39.514462   17.713379   -1.362567
 S   36.789326   17.713379    6.812838
 S   39.514462   14.988245    6.812838
 S   39.514462   17.713379    4.087703
 S   -1.362568   20.438517   -1.362567
 S   -1.362568   23.163651    1.362568
 S    1.362568   23.163651   -1.362567
 S   -1.362568   20.438517    4.087703
 S   -1.362568   23.163651    6.812838
 S    1.362568   20.438517    6.812838
 S   36.789326   20.438517   -1.362567
 S   39.514462   20.438517    1.362568
 S   39.514462   23.163651   -1.362567
 S   36.789326   23.163651    6.812838
 S   39.514462   20.438517    6.812838
 S   39.514462   23.163651    4.087703
 S   14.988245   -1.362568   -1.362567
 S   17.713379   -1.362568    1.362568
 S   17.713379    1.362568   -1.362567
 S   17.713379   -1.362568    6.812838
 S   14.988245   36.789326   -1.362567
 S   17.713379   39.514462   -1.362567
 S   14.988245   39.514462    6.812838
 S   17.713379   36.789326    6.812838
 S   17.713379   39.514462    4.087703
 S   20.438517   -1.362568   -1.362567
 S   23.163651   -1.362568    1.362568
 S   23.163651    1.362568   -1.362567
 S   20.438517   -1.362568    4.087703
 S   20.438517    1.362568    6.812838
 S   23.163651   -1.362568    6.812838
 S   20.438517   36.789326   -1.362567
 S   20.438517   39.514462    1.362568
 S   23.163651   39.514462   -1.362567
 S   20.438517   39.514462    6.812838
 S   23.163651   36.789326    6.812838
 S   23.163651   39.514462    4.087703
 S    4.087703   20.438517   -1.362567
 S    4.087703   17.713379    6.812838
 S    4.087703   25.888786   -1.362567
 S    4.087703   23.163651    6.812838
 S   20.438517    4.087703   -1.362567
 S   17.713379    4.087703    6.812838
 S   25.888786    4.087703   -1.362567
 S   23.163651    4.087703    6.812838
 S    6.812838    6.812838   -1.362567
 S   31.339056   31.339056   -1.362567
 S   34.064190   34.064190   -1.362567
 S   31.339056   34.064190    6.812838
 S   34.064190   31.339056    6.812838
 S   34.064190    6.812838   -1.362567
 S   31.339056    6.812838    6.812838
 S    6.812838   34.064190   -1.362567
 S    6.812838   31.339056    6.812838
 S    9.537973    9.537973   -1.362567
 S    6.812838    9.537973    6.812838
 S    9.537973    6.812838    6.812838
 S   34.064190    9.537973    6.812838
 S    9.537973   34.064190    6.812838
 S    6.812838   12.263109   -1.362567
 S   31.339056   25.888786   -1.362567
 S   34.064190   28.613920   -1.362567
 S   31.339056   28.613920    6.812838
 S   34.064190   25.888786    6.812838
 S   31.339056    9.537973   -1.362567
 S   34.064190   12.263109   -1.362567
 S   31.339056   12.263109    6.812838
 S    6.812838   28.613920   -1.362567
 S    6.812838   25.888786    6.812838
 S   12.263109    6.812838   -1.362567
 S   25.888786   31.339056   -1.362567
 S   28.613920   34.064190   -1.362567
 S   25.888786   34.064190    6.812838
 S   28.613920   31.339056    6.812838
 S    9.537973   31.339056   -1.362567
 S   12.263109   34.064190   -1.362567
 S   12.263109   31.339056    6.812838
 S   28.613920    6.812838   -1.362567
 S   25.888786    6.812838    6.812838
 S    9.537973   14.988245   -1.362567
 S    6.812838   14.988245    6.812838
 S    9.537973   12.263109    6.812838
 S   34.064190   14.988245    6.812838
 S    9.537973   28.613920    6.812838
 S   14.988245    9.537973   -1.362567
 S   12.263109    9.537973    6.812838
 S   14.988245    6.812838    6.812838
 S   14.988245   34.064190    6.812838
 S   28.613920    9.537973    6.812838
 S    6.812838   17.713379   -1.362567
 S   31.339056   20.438517   -1.362567
 S   34.064190   23.163651   -1.362567
 S   31.339056   23.163651    6.812838
 S   34.064190   20.438517    6.812838
 S   31.339056   14.988245   -1.362567
 S   34.064190   17.713379   -1.362567
 S   31.339056   17.713379    6.812838
 S    6.812838   23.163651   -1.362567
 S    6.812838   20.438517    6.812838
 S   17.713379    6.812838   -1.362567
 S   20.438517   31.339056   -1.362567
 S   23.163651   34.064190   -1.362567
 S   20.438517   34.064190    6.812838
 S   23.163651   31.339056    6.812838
 S   14.988245   31.339056   -1.362567
 S   17.713379   34.064190   -1.362567
 S   17.713379   31.339056    6.812838
 S   23.163651    6.812838   -1.362567
 S   20.438517    6.812838    6.812838
 S    9.537973   20.438517   -1.362567
 S    9.537973   17.713379    6.812838
 S    9.537973   25.888786   -1.362567
 S    9.537973   23.163651    6.812838
 S   20.438517    9.537973   -1.362567
 S   17.713379    9.537973    6.812838
 S   25.888786    9.537973   -1.362567
 S   23.163651    9.537973    6.812838
 S   12.263109   12.263109   -1.362567
 S   25.888786   25.888786   -1.362567
 S   28.613920   28.613920   -1.362567
 S   25.888786   28.613920    6.812838
 S   28.613920   25.888786    6.812838
 S   28.613920   12.263109   -1.362567
 S   25.888786   12.263109    6.812838
 S   12.263109   28.613920   -1.362567
 S   12.263109   25.888786    6.812838
 S   14.988245   14.988245   -1.362567
 S   12.263109   14.988245    6.812838
 S   14.988245   12.263109    6.812838
 S   28.613920   14.988245    6.812838
 S   14.988245   28.613920    6.812838
 S   12.263109   17.713379   -1.362567
 S   25.888786   20.438517   -1.362567
 S   28.613920   23.163651   -1.362567
 S   25.888786   23.163651    6.812838
 S   28.613920   20.438517    6.812838
 S   25.888786   14.988245   -1.362567
 S   28.613920   17.713379   -1.362567
 S   25.888786   17.713379    6.812838
 S   12.263109   23.163651   -1.362567
 S   12.263109   20.438517    6.812838
 S   17.713379   12.263109   -1.362567
 S   20.438517   25.888786   -1.362567
 S   23.163651   28.613920   -1.362567
 S   20.438517   28.613920    6.812838
 S   23.163651   25.888786    6.812838
 S   14.988245   25.888786   -1.362567
 S   17.713379   28.613920   -1.362567
 S   17.713379   25.888786    6.812838
 S   23.163651   12.263109   -1.362567
 S   20.438517   12.263109    6.812838
 S   14.988245   20.438517   -1.362567
 S   14.988245   17.713379    6.812838
 S   14.988245   23.163651    6.812838
 S   20.438517   14.988245   -1.362567
 S   17.713379   14.988245    6.812838
 S   23.163651   14.988245    6.812838
 S   17.713379   17.713379   -1.362567
 S   20.438517   20.438517   -1.362567
 S   23.163651   23.163651   -1.362567
 S   20.438517   23.163651    6.812838
 S   23.163651   20.438517    6.812838
 S   23.163651   17.713379   -1.362567
 S   20.438517   17.713379    6.812838
 S   17.713379   23.163651   -1.362567
 S   17.713379   20.438517    6.812838
