164
small_oleic.xyz - created by mBuild
Zn    0.000000    0.000000    0.000000
Zn    0.000000    0.000000    5.450000
Zn    0.000000   10.901000    0.000000
Zn    0.000000   10.901000    5.450000
Zn   10.901000    0.000000    0.000000
Zn   10.901000    0.000000    5.450000
Zn   10.901000   10.901000    0.000000
Zn   10.901000   10.901000    5.450000
Zn    0.000000    5.450000    0.000000
Zn    0.000000    5.450000    5.450000
Zn   10.901000    5.450000    0.000000
Zn   10.901000    5.450000    5.450000
Zn    5.450000    0.000000    0.000000
Zn    5.450000    0.000000    5.450000
Zn    5.450000   10.901000    0.000000
Zn    5.450000   10.901000    5.450000
Zn    5.450000    5.450000    0.000000
Zn    5.450000    5.450000    5.450000
Zn    0.000000    2.725000    2.725000
Zn   10.901000    2.725000    2.725000
Zn    0.000000    8.175000    2.725000
Zn   10.901000    8.175000    2.725000
Zn    5.450000    2.725000    2.725000
Zn    5.450000    8.175000    2.725000
Zn    2.725000    0.000000    2.725000
Zn    2.725000   10.901000    2.725000
Zn    2.725000    5.450000    2.725000
Zn    8.175000    0.000000    2.725000
Zn    8.175000   10.901000    2.725000
Zn    8.175000    5.450000    2.725000
Zn    2.725000    2.725000    0.000000
Zn    2.725000    2.725000    5.450000
Zn    2.725000    8.175000    0.000000
Zn    2.725000    8.175000    5.450000
Zn    8.175000    2.725000    0.000000
Zn    8.175000    2.725000    5.450000
Zn    8.175000    8.175000    0.000000
Zn    8.175000    8.175000    5.450000
S    1.363000    1.363000    4.088000
S    1.363000    6.813000    4.088000
S    6.813000    1.363000    4.088000
S    6.813000    6.813000    4.088000
S    1.363000    4.088000    1.363000
S    1.363000    9.538000    1.363000
S    6.813000    4.088000    1.363000
S    6.813000    9.538000    1.363000
S    4.088000    1.363000    1.363000
S    4.088000    6.813000    1.363000
S    9.538000    1.363000    1.363000
S    9.538000    6.813000    1.363000
S    4.088000    4.088000    4.088000
S    4.088000    9.538000    4.088000
S    9.538000    4.088000    4.088000
S    9.538000    9.538000    4.088000
S   -1.363000   -1.363000   -1.363000
S   -1.363000    1.363000    1.363000
S    1.363000   -1.363000    1.363000
S    1.363000    1.363000   -1.363000
S   -1.363000   -1.363000    4.088000
S   -1.363000    1.363000    6.813000
S    1.363000   -1.363000    6.813000
S   -1.363000    9.538000   -1.363000
S   -1.363000   12.263000    1.363000
S    1.363000   12.263000   -1.363000
S   -1.363000    9.538000    4.088000
S   -1.363000   12.263000    6.813000
S    1.363000    9.538000    6.813000
S    1.363000   12.263000    4.088000
S    9.538000   -1.363000   -1.363000
S   12.263000   -1.363000    1.363000
S   12.263000    1.363000   -1.363000
S    9.538000   -1.363000    4.088000
S    9.538000    1.363000    6.813000
S   12.263000   -1.363000    6.813000
S   12.263000    1.363000    4.088000
S    9.538000    9.538000   -1.363000
S    9.538000   12.263000    1.363000
S   12.263000    9.538000    1.363000
S   12.263000   12.263000   -1.363000
S    9.538000   12.263000    6.813000
S   12.263000    9.538000    6.813000
S   12.263000   12.263000    4.088000
S   -1.363000    4.088000   -1.363000
S   -1.363000    6.813000    1.363000
S    1.363000    6.813000   -1.363000
S   -1.363000    4.088000    4.088000
S   -1.363000    6.813000    6.813000
S    1.363000    4.088000    6.813000
S    9.538000    4.088000   -1.363000
S   12.263000    4.088000    1.363000
S   12.263000    6.813000   -1.363000
S    9.538000    6.813000    6.813000
S   12.263000    4.088000    6.813000
S   12.263000    6.813000    4.088000
S    4.088000   -1.363000   -1.363000
S    6.813000   -1.363000    1.363000
S    6.813000    1.363000   -1.363000
S    4.088000   -1.363000    4.088000
S    4.088000    1.363000    6.813000
S    6.813000   -1.363000    6.813000
S    4.088000    9.538000   -1.363000
S    4.088000   12.263000    1.363000
S    6.813000   12.263000   -1.363000
S    4.088000   12.263000    6.813000
S    6.813000    9.538000    6.813000
S    6.813000   12.263000    4.088000
S    4.088000    4.088000   -1.363000
S    6.813000    6.813000   -1.363000
S    4.088000    6.813000    6.813000
S    6.813000    4.088000    6.813000
C   -0.823586   10.780615   21.977971
C   -0.894084   12.124709   21.252935
C    0.123998   12.235135   20.107533
C   -0.209500   11.302562   18.929735
C    0.646305   11.593799   17.687104
C    2.131065   11.247890   17.899974
C    2.936120   11.281923   16.591728
C    3.139852   12.709584   16.061992
C    4.000501   12.708219   14.825061
C    3.564485   12.421042   13.583715
C    2.132183   12.104534   13.217226
C    2.055894   10.890120   12.283524
C    2.382272    9.577371   13.016993
C    2.462764    8.376376   12.051842
C    3.904453    7.946806   11.729099
C    4.681182    9.008655   10.938075
C    6.059716    8.485969   10.524219
C    6.813000    9.538000    9.773536
O    6.813000    9.538000    8.513000
O    7.479661   10.541767   10.469547
H   -1.158969    9.957973   21.312577
H   -1.492408   10.803534   22.863980
H    0.212783   10.578468   22.323302
H   -0.682185   12.929645   21.989672
H   -1.923947   12.286164   20.866489
H    0.123073   13.287749   19.749023
H    1.139751   12.010684   20.497893
H   -0.071592   10.241774   19.229941
H   -1.276744   11.438732   18.649896
H    0.247584   10.984356   16.846399
H    0.536794   12.663979   17.410054
H    2.587884   11.948503   18.631677
H    2.206764   10.221366   18.320780
H    2.434790   10.647929   15.831290
H    3.934493   10.831971   16.788929
H    3.659440   13.306621   16.842514
H    2.174253   13.215092   15.854441
H    5.045352   12.979479   14.945053
H    4.282618   12.489761   12.771133
H    1.488107   11.923397   14.100835
H    1.716332   12.986128   12.685080
H    2.738156   11.042215   11.420404
H    1.022959   10.822387   11.877485
H    3.328927    9.676304   13.591478
H    1.574202    9.386212   13.757329
H    1.907798    8.577396   11.108805
H    1.959741    7.509334   12.533730
H    3.857232    7.011668   11.128879
H    4.443371    7.712631   12.673674
H    4.105383    9.288148   10.028021
H    4.818082    9.913120   11.569839
H    6.641584    8.202362   11.427938
H    5.946285    7.582182    9.885677
H    7.974471   11.275831    9.977034
